AMOSTRA/TAI/Reguladores.dss
! REGULADORES — gerados de UNREMT
! vreg = 122 V e band = 2 V — AJUSTES TIPICOS, nao de campo.
! kVA = 5000 adotado; a BDGD nao traz a potencia do regulador.
! O ptratio segue a tensao de cada alimentador (TP para 120 V).
New Transformer.REG_2710386_1 phases=1 windings=2 XHL=0.04
~ buses=[15604-10515717f.1 15604-10515717r.1] conns=[wye wye]
~ kVs=[19.9186 19.9186] kVAs=[5000 5000] %Rs=[0.01 0.01]
~ maxtap=1.10 mintap=0.90 numtaps=32
New RegControl.RC_REG_2710386_1 transformer=REG_2710386_1 winding=2 vreg=122 band=2 ptratio=165.99 delay=15 maxtapchange=1
New Transformer.REG_2710386_2 phases=1 windings=2 XHL=0.04
~ buses=[15604-10515717f.2 15604-10515717r.2] conns=[wye wye]
~ kVs=[19.9186 19.9186] kVAs=[5000 5000] %Rs=[0.01 0.01]
~ maxtap=1.10 mintap=0.90 numtaps=32
New RegControl.RC_REG_2710386_2 transformer=REG_2710386_2 winding=2 vreg=122 band=2 ptratio=165.99 delay=15 maxtapchange=1
New Transformer.REG_2710386_3 phases=1 windings=2 XHL=0.04
~ buses=[15604-10515717f.3 15604-10515717r.3] conns=[wye wye]
~ kVs=[19.9186 19.9186] kVAs=[5000 5000] %Rs=[0.01 0.01]
~ maxtap=1.10 mintap=0.90 numtaps=32
New RegControl.RC_REG_2710386_3 transformer=REG_2710386_3 winding=2 vreg=122 band=2 ptratio=165.99 delay=15 maxtapchange=1
New Transformer.REG_2811316_1 phases=1 windings=2 XHL=0.04
~ buses=[16284-11061512f.1 16284-11061512r.1] conns=[wye wye]
~ kVs=[19.9186 19.9186] kVAs=[5000 5000] %Rs=[0.01 0.01]
~ maxtap=1.10 mintap=0.90 numtaps=32
New RegControl.RC_REG_2811316_1 transformer=REG_2811316_1 winding=2 vreg=122 band=2 ptratio=165.99 delay=15 maxtapchange=1
New Transformer.REG_2811316_2 phases=1 windings=2 XHL=0.04
~ buses=[16284-11061512f.2 16284-11061512r.2] conns=[wye wye]
~ kVs=[19.9186 19.9186] kVAs=[5000 5000] %Rs=[0.01 0.01]
~ maxtap=1.10 mintap=0.90 numtaps=32
New RegControl.RC_REG_2811316_2 transformer=REG_2811316_2 winding=2 vreg=122 band=2 ptratio=165.99 delay=15 maxtapchange=1
New Transformer.REG_2811316_3 phases=1 windings=2 XHL=0.04
~ buses=[16284-11061512f.3 16284-11061512r.3] conns=[wye wye]
~ kVs=[19.9186 19.9186] kVAs=[5000 5000] %Rs=[0.01 0.01]
~ maxtap=1.10 mintap=0.90 numtaps=32
New RegControl.RC_REG_2811316_3 transformer=REG_2811316_3 winding=2 vreg=122 band=2 ptratio=165.99 delay=15 maxtapchange=1
New Transformer.REG_2959983_1 phases=1 windings=2 XHL=0.04
~ buses=[15604-11537782f.1 15604-11537782r.1] conns=[wye wye]
~ kVs=[19.9186 19.9186] kVAs=[5000 5000] %Rs=[0.01 0.01]
~ maxtap=1.10 mintap=0.90 numtaps=32
New RegControl.RC_REG_2959983_1 transformer=REG_2959983_1 winding=2 vreg=122 band=2 ptratio=165.99 delay=15 maxtapchange=1
New Transformer.REG_2959983_2 phases=1 windings=2 XHL=0.04
~ buses=[15604-11537782f.2 15604-11537782r.2] conns=[wye wye]
~ kVs=[19.9186 19.9186] kVAs=[5000 5000] %Rs=[0.01 0.01]
~ maxtap=1.10 mintap=0.90 numtaps=32
New RegControl.RC_REG_2959983_2 transformer=REG_2959983_2 winding=2 vreg=122 band=2 ptratio=165.99 delay=15 maxtapchange=1
New Transformer.REG_2959983_3 phases=1 windings=2 XHL=0.04
~ buses=[15604-11537782f.3 15604-11537782r.3] conns=[wye wye]
~ kVs=[19.9186 19.9186] kVAs=[5000 5000] %Rs=[0.01 0.01]
~ maxtap=1.10 mintap=0.90 numtaps=32
New RegControl.RC_REG_2959983_3 transformer=REG_2959983_3 winding=2 vreg=122 band=2 ptratio=165.99 delay=15 maxtapchange=1
New Transformer.REG_3064617_1 phases=1 windings=2 XHL=0.04
~ buses=[16284-12104750f.1 16284-12104750r.1] conns=[wye wye]
~ kVs=[19.9186 19.9186] kVAs=[5000 5000] %Rs=[0.01 0.01]
~ maxtap=1.10 mintap=0.90 numtaps=32
New RegControl.RC_REG_3064617_1 transformer=REG_3064617_1 winding=2 vreg=122 band=2 ptratio=165.99 delay=15 maxtapchange=1
New Transformer.REG_3064617_2 phases=1 windings=2 XHL=0.04
~ buses=[16284-12104750f.2 16284-12104750r.2] conns=[wye wye]
~ kVs=[19.9186 19.9186] kVAs=[5000 5000] %Rs=[0.01 0.01]
~ maxtap=1.10 mintap=0.90 numtaps=32
New RegControl.RC_REG_3064617_2 transformer=REG_3064617_2 winding=2 vreg=122 band=2 ptratio=165.99 delay=15 maxtapchange=1
New Transformer.REG_3064617_3 phases=1 windings=2 XHL=0.04
~ buses=[16284-12104750f.3 16284-12104750r.3] conns=[wye wye]
~ kVs=[19.9186 19.9186] kVAs=[5000 5000] %Rs=[0.01 0.01]
~ maxtap=1.10 mintap=0.90 numtaps=32
New RegControl.RC_REG_3064617_3 transformer=REG_3064617_3 winding=2 vreg=122 band=2 ptratio=165.99 delay=15 maxtapchange=1
New Transformer.REG_3190311_1 phases=1 windings=2 XHL=0.04
~ buses=[27342-12969434f.1 27342-12969434r.1] conns=[wye wye]
~ kVs=[19.9186 19.9186] kVAs=[5000 5000] %Rs=[0.01 0.01]
~ maxtap=1.10 mintap=0.90 numtaps=32
New RegControl.RC_REG_3190311_1 transformer=REG_3190311_1 winding=2 vreg=122 band=2 ptratio=165.99 delay=15 maxtapchange=1
New Transformer.REG_3190311_2 phases=1 windings=2 XHL=0.04
~ buses=[27342-12969434f.2 27342-12969434r.2] conns=[wye wye]
~ kVs=[19.9186 19.9186] kVAs=[5000 5000] %Rs=[0.01 0.01]
~ maxtap=1.10 mintap=0.90 numtaps=32
New RegControl.RC_REG_3190311_2 transformer=REG_3190311_2 winding=2 vreg=122 band=2 ptratio=165.99 delay=15 maxtapchange=1
New Transformer.REG_3190311_3 phases=1 windings=2 XHL=0.04
~ buses=[27342-12969434f.3 27342-12969434r.3] conns=[wye wye]
~ kVs=[19.9186 19.9186] kVAs=[5000 5000] %Rs=[0.01 0.01]
~ maxtap=1.10 mintap=0.90 numtaps=32
New RegControl.RC_REG_3190311_3 transformer=REG_3190311_3 winding=2 vreg=122 band=2 ptratio=165.99 delay=15 maxtapchange=1
